&aerosol_nl
 aer_drydep_list		= 'bc_a1', 'bc_a3', 'dst_a5', 'dst_a7', 'ncl_a1', 'ncl_a2', 'ncl_a4', 'ncl_a6', 'nh4_a1', 'nh4_a2', 'nh4_a4',
         'nh4_a5', 'nh4_a6', 'nh4_a7', 'num_a1', 'num_a2', 'num_a3', 'num_a4', 'num_a5', 'num_a6', 'num_a7', 'pom_a1',
         'pom_a3', 'so4_a1', 'so4_a2', 'so4_a4', 'so4_a5', 'so4_a6', 'so4_a7', 'soa_a1', 'soa_a2'
 aer_wetdep_list		= 'SOA', 'bc_a1', 'bc_a3', 'dst_a5', 'dst_a7', 'ncl_a1', 'ncl_a2', 'ncl_a4', 'ncl_a6', 'nh4_a1', 'nh4_a2',
         'nh4_a4', 'nh4_a5', 'nh4_a6', 'nh4_a7', 'num_a1', 'num_a2', 'num_a3', 'num_a4', 'num_a5', 'num_a6', 'num_a7',
         'pom_a1', 'pom_a3', 'so4_a1', 'so4_a2', 'so4_a4', 'so4_a5', 'so4_a6', 'so4_a7', 'soa_a1', 'soa_a2'
 modal_accum_coarse_exch		= .false.
 modal_mosaic_nitrates		= .false.
 seasalt_emis_scale		= 1.62D0
 sol_factb_interstitial		= 0.1D0
 sol_facti_cloud_borne		= 1.0D0
 sol_factic_interstitial		= 0.4D0
/
&aoa_tracers_nl
 aoa_tracers_flag		= .true.
/
&blj_nl
 do_beljaars		=  .false. 
/
&cam_initfiles_nl
 bnd_topo		= '/pic/projects/climate/csmdata//atm/cam/topo/fv_1.9x2.5-gmted2010_modis-cam_fv_smooth-intermediate_ncube3000-no_anisoSGH_c151210.nc'
 ncdata		= '/pic/projects/climate/csmdata//atm/cam/inic/fv/trop_strat_mam7_chem_2000-01-01_1.9x2.5_L30_c121011.nc'
/
&carma_nl
 carma_model		= 'none'
/
&check_energy_nl
 print_energy_errors		= .false.
/
&chem_inparm
 clim_soilw_file		= '/pic/projects/climate/csmdata//atm/cam/chem/trop_mozart/dvel/clim_soilw.nc'
 depvel_file		= '/pic/projects/climate/csmdata//atm/cam/chem/trop_mozart/dvel/depvel_monthly.nc'
 depvel_lnd_file		= '/pic/projects/climate/csmdata//atm/cam/chem/trop_mozart/dvel/regrid_vegetation.nc'
 ext_frc_cycle_yr		= 2000
 ext_frc_specifier		= 'NO2    -> /pic/projects/climate/csmdata//atm/cam/chem/1850-2000_emis/IPCC_emissions_aircraft_NO2_1850-2000_1.9x2.5_c090729.nc',
         'bc_a3  -> /pic/projects/climate/csmdata//atm/cam/chem/trop_mozart_aero/emis/ar5_mam3_bc_elev_2000_c120315.nc',
         'num_a1 -> /pic/projects/climate/csmdata//atm/cam/chem/trop_mozart_aero/emis/ar5_mam7_num_a1_elev_2000_c120716.nc',
         'num_a2 -> /pic/projects/climate/csmdata//atm/cam/chem/trop_mozart_aero/emis/ar5_mam3_num_a2_elev_2000_c120315.nc',
         'num_a3 -> /pic/projects/climate/csmdata//atm/cam/chem/trop_mozart_aero/emis/ar5_mam7_num_a3_elev_2000_c120716.nc',
         'pom_a3 -> /pic/projects/climate/csmdata//atm/cam/chem/trop_mozart_aero/emis/ar5_mam3_pom_elev_2000_c130422.nc',
         'so4_a1 -> /pic/projects/climate/csmdata//atm/cam/chem/trop_mozart_aero/emis/ar5_mam3_so4_a1_elev_2000_c120315.nc',
         'so4_a2 -> /pic/projects/climate/csmdata//atm/cam/chem/trop_mozart_aero/emis/ar5_mam3_so4_a2_elev_2000_c120315.nc'
 ext_frc_type		= 'CYCLICAL'
 rsf_file		= '/pic/projects/climate/csmdata//atm/waccm/phot/RSF_GT200nm_v3.0_c080811.nc'
 season_wes_file		= '/pic/projects/climate/csmdata//atm/cam/chem/trop_mozart/dvel/season_wes.nc'
 srf_emis_cycle_yr		= 2000
 srf_emis_specifier		= 'BIGALK   -> /pic/projects/climate/csmdata//atm/cam/chem/emis/1992-2010/emissions.BIGALK.surface.1.9x2.5_c110426.nc',
         'BIGENE   -> /pic/projects/climate/csmdata//atm/cam/chem/emis/1992-2010/emissions.BIGENE.surface.1.9x2.5_c110426.nc',
         'C2H2     -> /pic/projects/climate/csmdata//atm/cam/chem/emis/1992-2010/emissions.C2H2.surface.1.9x2.5_c110426.nc',
         'C2H4     -> /pic/projects/climate/csmdata//atm/cam/chem/emis/1992-2010/emissions.C2H4.surface.1.9x2.5_c110426.nc',
         'C2H5OH   -> /pic/projects/climate/csmdata//atm/cam/chem/emis/1992-2010/emissions.C2H5OH.surface.1.9x2.5_c110426.nc',
         'C2H6     -> /pic/projects/climate/csmdata//atm/cam/chem/emis/1992-2010/emissions.C2H6.surface.1.9x2.5_c110426.nc',
         'C3H6     -> /pic/projects/climate/csmdata//atm/cam/chem/emis/1992-2010/emissions.C3H6.surface.1.9x2.5_c110426.nc',
         'C3H8     -> /pic/projects/climate/csmdata//atm/cam/chem/emis/1992-2010/emissions.C3H8.surface.1.9x2.5_c110426.nc',
         'CH2O     -> /pic/projects/climate/csmdata//atm/cam/chem/emis/1992-2010/emissions.CH2O.surface.1.9x2.5_c110426.nc',
         'CH3CHO   -> /pic/projects/climate/csmdata//atm/cam/chem/emis/1992-2010/emissions.CH3CHO.surface.1.9x2.5_c110426.nc',
         'CH3CN    -> /pic/projects/climate/csmdata//atm/cam/chem/emis/1992-2010/emissions.CH3CN.surface.1.9x2.5_c110426.nc',
         'CH3COCH3 -> /pic/projects/climate/csmdata//atm/cam/chem/emis/1992-2010/emissions.CH3COCH3.surface.1.9x2.5_c110426.nc',
         'CH3COOH  -> /pic/projects/climate/csmdata//atm/cam/chem/emis/1992-2010/emissions.CH3COOH.surface.1.9x2.5_c110426.nc',
         'CH3OH    -> /pic/projects/climate/csmdata//atm/cam/chem/emis/1992-2010/emissions.CH3OH.surface.1.9x2.5_c110426.nc',
         'CO       -> /pic/projects/climate/csmdata//atm/cam/chem/emis/1992-2010/emissions.CO.surface.1.9x2.5_c110426.nc',
         'DMS      -> /pic/projects/climate/csmdata//atm/cam/chem/trop_mozart_aero/emis/aerocom_mam3_dms_surf_2000_c120315.nc',
         'HCN      -> /pic/projects/climate/csmdata//atm/cam/chem/emis/1992-2010/emissions.HCN.surface.1.9x2.5_c110426.nc',
         'HCOOH    -> /pic/projects/climate/csmdata//atm/cam/chem/emis/1992-2010/emissions.HCOOH.surface.1.9x2.5_c110426.nc',
         'ISOP     -> /pic/projects/climate/csmdata//atm/cam/chem/emis/1992-2010/emissions.ISOP.surface.1.9x2.5_c110426.nc',
         'MEK      -> /pic/projects/climate/csmdata//atm/cam/chem/emis/1992-2010/emissions.MEK.surface.1.9x2.5_c110426.nc',
         'NH3      -> /pic/projects/climate/csmdata//atm/cam/chem/trop_mozart_aero/emis/emis_NH3_2000_c111014.nc',
         'NO       -> /pic/projects/climate/csmdata//atm/cam/chem/emis/1992-2010/emissions.NO.surface.1.9x2.5_c110426.nc',
         'SO2      -> /pic/projects/climate/csmdata//atm/cam/chem/trop_mozart_aero/emis/ar5_mam3_so2_surf_2000_c120315.nc',
         'SOAG     -> /pic/projects/climate/csmdata//atm/cam/chem/trop_mozart_aero/emis/ar5_mam3_soag_1.5_surf_2000_c130422.nc',
         'TOLUENE  -> /pic/projects/climate/csmdata//atm/cam/chem/emis/1992-2010/emissions.TOLUENE.surface.1.9x2.5_c110426.nc',
         'bc_a3    -> /pic/projects/climate/csmdata//atm/cam/chem/trop_mozart_aero/emis/ar5_mam3_bc_surf_2000_c120315.nc',
         'num_a1   -> /pic/projects/climate/csmdata//atm/cam/chem/trop_mozart_aero/emis/ar5_mam7_num_a1_surf_2000_c120716.nc',
         'num_a2   -> /pic/projects/climate/csmdata//atm/cam/chem/trop_mozart_aero/emis/ar5_mam3_num_a2_surf_2000_c120315.nc',
         'num_a3   -> /pic/projects/climate/csmdata//atm/cam/chem/trop_mozart_aero/emis/ar5_mam7_num_a3_surf_2000_c120716.nc',
         'pom_a3   -> /pic/projects/climate/csmdata//atm/cam/chem/trop_mozart_aero/emis/ar5_mam3_pom_surf_2000_c130422.nc',
         'so4_a1   -> /pic/projects/climate/csmdata//atm/cam/chem/trop_mozart_aero/emis/ar5_mam3_so4_a1_surf_2000_c120315.nc',
         'so4_a2   -> /pic/projects/climate/csmdata//atm/cam/chem/trop_mozart_aero/emis/ar5_mam3_so4_a2_surf_2000_c120315.nc'
 srf_emis_type		= 'CYCLICAL'
 xs_coef_file		= '/pic/projects/climate/csmdata//atm/waccm/phot/effxstex.txt'
 xs_long_file		= '/pic/projects/climate/csmdata//atm/waccm/phot/temp_prs_GT200nm_JPL10_c140624.nc'
 xs_short_file		= '/pic/projects/climate/csmdata//atm/waccm/phot/xs_short_jpl10_c140303.nc'
/
&chem_surfvals_nl
 flbc_cycle_yr		= 2000
 flbc_file		= '/pic/projects/climate/csmdata//atm/waccm/lb/LBC_1765-2100_1.9x2.5_CCMI_RCP60_za_RNOCStrend_c141002.nc'
 flbc_list		= 'CCL4', 'CF2CLBR', 'CF3BR', 'CFC11', 'CFC113', 'CFC12', 'CH3BR', 'CH3CCL3', 'CH3CL', 'CH4', 'CO2', 'H2',
         'HCFC22', 'N2O', 'OCS'
 flbc_type		= 'CYCLICAL'
 scenario_ghg		= 'CHEM_LBC_FILE'
/
&cldfrc2m_nl
 cldfrc2m_do_subgrid_growth		= .false.
 cldfrc2m_rhmaxi		=   1.1D0  
 cldfrc2m_rhmini		=   0.80D0  
/
&cldfrc_nl
 cldfrc_dp1		=  0.10D0 
 cldfrc_dp2		=  500.0D0 
 cldfrc_freeze_dry		= .true.
 cldfrc_ice		= .true.
 cldfrc_icecrit		=  0.93D0 
 cldfrc_iceopt		=  5 
 cldfrc_premib		=  700.0D2 
 cldfrc_premit		=  40000.0D0 
 cldfrc_rhminh		=  0.800D0 
 cldfrc_rhminl		=  0.8875D0 
 cldfrc_rhminl_adj_land		=  0.100D0 
 cldfrc_sh1		=  0.04D0 
 cldfrc_sh2		=  500.0D0 
/
&conv_water_nl
 conv_water_frac_limit		=  0.01d0  
 conv_water_in_rad		=  1 
/
&dust_nl
 dust_emis_fact		= 0.35D0
 soil_erod_file		= '/pic/projects/climate/csmdata//atm/cam/dst/dst_source2x2_cam5.4_c150327.nc'
/
&dyn_fv_inparm
 fv_del2coef		= 3.e+5
 fv_div24del2flag		=  4
 fv_fft_flt		= 1
 fv_filtcw		= 0
 fv_nspltvrm		= 1
/
&eddy_diff_nl
 eddy_lbulk_max		= 40.D3
 eddy_leng_max		= 40.D3
 eddy_max_bot_pressure		= 100.D3
 eddy_moist_entrain_a2l		= 30.D0
 kv_freetrop_scale		= 1.D0
 kv_top_pressure		= 0.D0
 kv_top_scale		= 1.D0
/
&gw_drag_nl
 effgw_oro		= 0.125D0
 fcrit2		= 1.0
 gw_apply_tndmax		= .true. 
 gw_dc		= 0.D0
 gw_dc_long		= 0.D0
 gw_limit_tau_without_eff		= .false.
 gw_lndscl_sgh		= .true. 
 gw_oro_south_fac		= 1.d0   
 gw_prndl		= 0.25d0 
 pgwv		= 0
 pgwv_long		= 0
 tau_0_ubc		= .false.
 use_gw_rdg_beta		= .false.
 use_gw_rdg_gamma		= .false.
/
&hkconv_nl
 hkconv_c0		=   1.0e-4 
 hkconv_cmftau		=  1800.0D0 
/
&micro_mg_nl
 micro_mg_berg_eff_factor		=   1.0D0    
 micro_mg_dcs		=     400.D-6    
 micro_mg_num_steps		=     1          
 micro_mg_precip_frac_method		= 'max_overlap'
 micro_mg_sub_version		=     0          
 micro_mg_version		=     1          
 microp_uniform		= .false.
/
&modal_aer_opt_nl
 water_refindex_file		= '/pic/projects/climate/csmdata//atm/cam/physprops/water_refindex_rrtmg_c080910.nc'
/
&nucleate_ice_nl
 nucleate_ice_incloud		= .true.
 nucleate_ice_strat		= 0.0D0
 nucleate_ice_subgrid		= 1.2D0
 use_preexisting_ice		= .false.
/
&phys_ctl_nl
 cam_chempkg		= 'trop_strat_mam7'
 cam_physpkg		= 'cam5'
 cld_macmic_num_steps		=                                1 
 deep_scheme		= 'ZM'
 do_clubb_sgs		=  .false. 
 eddy_scheme		= 'diag_TKE'
 history_aero_optics		=           .false.  
 history_aerosol		=               .false.  
 history_amwg		=                  .true.   
 history_budget		=                .false.  
 history_carma		=       .true.   
 history_chemistry		=   .true.   
 history_clubb		=       .true.   
 history_eddy		=                  .false.  
 history_vdiag		=                 .false.  
 history_waccm		=                 .false.  
 history_waccmx		=      .false.  
 macrop_scheme		= 'park'
 microp_scheme		= 'MG'
 radiation_scheme		= 'rrtmg'
 shallow_scheme		= 'UW'
 srf_flux_avg		= 0
 use_gw_convect_dp		= .false.
 use_gw_convect_sh		= .false.
 use_gw_front		= .false.
 use_gw_front_igw		= .false.
 use_gw_oro		= .true.
 use_hetfrz_classnuc		= .false.
 use_subcol_microp		= .false.
 waccmx_opt		= 'off'
/
&prescribed_strataero_nl
 prescribed_strataero_cycle_yr		= 2000
 prescribed_strataero_datapath		= '/pic/projects/climate/csmdata//atm/waccm/sulf'
 prescribed_strataero_file		= 'CESM_1949_2100_sad_V2_c130627.nc'
 prescribed_strataero_type		= 'CYCLICAL'
/
&rad_cnst_nl
 icecldoptics		= 'mitchell'
 iceopticsfile		= '/pic/projects/climate/csmdata//atm/cam/physprops/iceoptics_c080917.nc'
 liqcldoptics		= 'gammadist'
 liqopticsfile		= '/pic/projects/climate/csmdata//atm/cam/physprops/F_nwvl200_mu20_lam50_res64_t298_c080428.nc'
 mode_defs		= 'mam7_mode1:accum:=', 'A:num_a1:N:num_c1:num_mr:+',
         'A:so4_a1:N:so4_c1:sulfate:/pic/projects/climate/csmdata//atm/cam/physprops/sulfate_rrtmg_c080918.nc:+', 'A:nh4_a1:N:nh4_c1:ammonium:/pic/projects/climate/csmdata//atm/cam/physprops/sulfate_rrtmg_c080918.nc:+',
         'A:pom_a1:N:pom_c1:p-organic:/pic/projects/climate/csmdata//atm/cam/physprops/ocpho_rrtmg_c130709.nc:+', 'A:soa_a1:N:soa_c1:s-organic:/pic/projects/climate/csmdata//atm/cam/physprops/ocphi_rrtmg_c100508.nc:+',
         'A:bc_a1:N:bc_c1:black-c:/pic/projects/climate/csmdata//atm/cam/physprops/bcpho_rrtmg_c100508.nc:+', 'A:ncl_a1:N:ncl_c1:seasalt:/pic/projects/climate/csmdata//atm/cam/physprops/ssam_rrtmg_c100508.nc',
         'mam7_mode2:aitken:=', 'A:num_a2:N:num_c2:num_mr:+',
         'A:so4_a2:N:so4_c2:sulfate:/pic/projects/climate/csmdata//atm/cam/physprops/sulfate_rrtmg_c080918.nc:+', 'A:nh4_a2:N:nh4_c2:ammonium:/pic/projects/climate/csmdata//atm/cam/physprops/sulfate_rrtmg_c080918.nc:+',
         'A:soa_a2:N:soa_c2:s-organic:/pic/projects/climate/csmdata//atm/cam/physprops/ocphi_rrtmg_c100508.nc:+', 'A:ncl_a2:N:ncl_c2:seasalt:/pic/projects/climate/csmdata//atm/cam/physprops/ssam_rrtmg_c100508.nc',
         'mam7_mode3:primary_carbon:=', 'A:num_a3:N:num_c3:num_mr:+',
         'A:pom_a3:N:pom_c3:p-organic:/pic/projects/climate/csmdata//atm/cam/physprops/ocpho_rrtmg_c130709.nc:+', 'A:bc_a3:N:bc_c3:black-c:/pic/projects/climate/csmdata//atm/cam/physprops/bcpho_rrtmg_c100508.nc',
         'mam7_mode4:fine_seasalt:=', 'A:num_a4:N:num_c4:num_mr:+',
         'A:ncl_a4:N:ncl_c4:seasalt:/pic/projects/climate/csmdata//atm/cam/physprops/ssam_rrtmg_c100508.nc:+', 'A:so4_a4:N:so4_c4:sulfate:/pic/projects/climate/csmdata//atm/cam/physprops/sulfate_rrtmg_c080918.nc:+',
         'A:nh4_a4:N:nh4_c4:ammonium:/pic/projects/climate/csmdata//atm/cam/physprops/sulfate_rrtmg_c080918.nc', 'mam7_mode5:fine_dust:=',
         'A:num_a5:N:num_c5:num_mr:+', 'A:dst_a5:N:dst_c5:dust:/pic/projects/climate/csmdata//atm/cam/physprops/dust_aeronet_rrtmg_c141106.nc:+',
         'A:so4_a5:N:so4_c5:sulfate:/pic/projects/climate/csmdata//atm/cam/physprops/sulfate_rrtmg_c080918.nc:+', 'A:nh4_a5:N:nh4_c5:ammonium:/pic/projects/climate/csmdata//atm/cam/physprops/sulfate_rrtmg_c080918.nc',
         'mam7_mode6:coarse_seasalt:=', 'A:num_a6:N:num_c6:num_mr:+',
         'A:ncl_a6:N:ncl_c6:seasalt:/pic/projects/climate/csmdata//atm/cam/physprops/ssam_rrtmg_c100508.nc:+', 'A:so4_a6:N:so4_c6:sulfate:/pic/projects/climate/csmdata//atm/cam/physprops/sulfate_rrtmg_c080918.nc:+',
         'A:nh4_a6:N:nh4_c6:ammonium:/pic/projects/climate/csmdata//atm/cam/physprops/sulfate_rrtmg_c080918.nc', 'mam7_mode7:coarse_dust:=',
         'A:num_a7:N:num_c7:num_mr:+', 'A:dst_a7:N:dst_c7:dust:/pic/projects/climate/csmdata//atm/cam/physprops/dust_aeronet_rrtmg_c141106.nc:+',
         'A:so4_a7:N:so4_c7:sulfate:/pic/projects/climate/csmdata//atm/cam/physprops/sulfate_rrtmg_c080918.nc:+', 'A:nh4_a7:N:nh4_c7:ammonium:/pic/projects/climate/csmdata//atm/cam/physprops/sulfate_rrtmg_c080918.nc'
 rad_climate		= 'A:Q:H2O', 'N:O2:O2',
         'A:CO2:CO2', 'A:O3:O3',
         'A:N2O:N2O', 'A:CH4:CH4',
         'N:CFC11STAR:CFC11', 'A:CFC12:CFC12',
         'M:mam7_mode1:/pic/projects/climate/csmdata//atm/cam/physprops/mam7_mode1_rrtmg_c120904.nc', 'M:mam7_mode2:/pic/projects/climate/csmdata//atm/cam/physprops/mam7_mode2_rrtmg_c120904.nc',
         'M:mam7_mode3:/pic/projects/climate/csmdata//atm/cam/physprops/mam7_mode3_rrtmg_c120904.nc', 'M:mam7_mode4:/pic/projects/climate/csmdata//atm/cam/physprops/mam7_mode4_rrtmg_c120904.nc',
         'M:mam7_mode5:/pic/projects/climate/csmdata//atm/cam/physprops/mam7_mode5_rrtmg_c120904.nc', 'M:mam7_mode6:/pic/projects/climate/csmdata//atm/cam/physprops/mam7_mode6_rrtmg_c120904.nc',
         'M:mam7_mode7:/pic/projects/climate/csmdata//atm/cam/physprops/mam7_mode7_rrtmg_c120904.nc'
/
&ref_pres_nl
 clim_modal_aero_top_press		=  1.D-4 
 do_molec_press		=  0.1D0 
 molec_diff_bot_press		=  50.D0 
 trop_cloud_top_press		=       1.D2 
/
&solar_inparm
 solar_data_file		= '/pic/projects/climate/csmdata//atm/cam/solar/solar_ave_sc19-sc23.c090810.nc'
 solar_htng_spctrl_scl		= .true.
/
&spmd_fv_inparm
 npr_yz		= 24,2,2,24
/
&subcol_nl
 subcol_scheme		= 'off'
/
&test_tracers_nl
 test_tracer_num		= 0
/
&tms_nl
 do_tms		=  .true.  
 tms_orocnst		=  1.0D0   
 tms_z0fac		=  0.075D0 
/
&tropopause_nl
 tropopause_climo_file		= '/pic/projects/climate/csmdata//atm/cam/chem/trop_mozart/ub/clim_p_trop.nc'
/
&uwshcu_nl
 uwshcu_rpen		=    5.0 
/
&vert_diff_nl
 diff_cnsrv_mass_check		=  .false. 
 do_iss		=  .true.  
/
&wetdep_inparm
 gas_wetdep_list		= 'ALKOOH', 'BRONO2', 'C2H5OH', 'C2H5OOH', 'C3H7OOH', 'CH2O', 'CH3CHO', 'CH3CN', 'CH3COCHO', 'CH3COOH', 'CH3COOOH', 'CH3OH',
         'CH3OOH', 'CLONO2', 'EOOH', 'GLYALD', 'H2O2', 'H2SO4', 'HBR', 'HCL', 'HCN', 'HCOOH', 'HNO3', 'HO2NO2',
         'HOBR', 'HOCL', 'HYAC', 'HYDRALD', 'ISOPNO3', 'ISOPOOH', 'MACR', 'MACROOH', 'MEKOOH', 'MVK', 'NH3', 'ONIT',
         'ONITR', 'POOH', 'Pb', 'ROOH', 'SO2', 'TERPOOH', 'TOLOOH', 'XOOH'
 gas_wetdep_method		= 'NEU'
/
&zmconv_nl
 zmconv_c0_lnd		=  0.0059D0 
 zmconv_c0_ocn		=  0.0450D0 
 zmconv_ke		=  1.0E-6 
 zmconv_ke_lnd		=  3.0E-6 
 zmconv_momcd		=  0.4000D0 
 zmconv_momcu		=  0.4000D0 
 zmconv_num_cin		=  5       
 zmconv_org		=  .false. 
/
